[General]
network = TC
record-eventlog = true
debug-on-errors = true
result-dir = results-tc
sim-time-limit = 15000us
**.displayAddresses = true
**.verbose = true
**.ES1.eth.address = "00-00-00-00-00-01"
**.ES3.eth.address = "00-00-00-00-00-02"
**.ES2.eth.address = "00-00-00-00-00-03"
**.SW*.processingDelay.delay = 0us
**.filteringDatabase.database = xmldoc("xml/Routing.xml", "/filteringDatabases/")
**.SW1.eth[0].queue.gateController.initialSchedule = xmldoc("xml/S.xml", "/schedules/switch[@name='SW1']/port[@id='0']/schedule") 
**.SW1.eth[1].queue.gateController.initialSchedule = xmldoc("xml/S.xml", "/schedules/switch[@name='SW1']/port[@id='1']/schedule") 
**.SW1.eth[2].queue.gateController.initialSchedule = xmldoc("xml/S.xml", "/schedules/switch[@name='SW1']/port[@id='2']/schedule") 
**.SW2.eth[0].queue.gateController.initialSchedule = xmldoc("xml/S.xml", "/schedules/switch[@name='SW2']/port[@id='0']/schedule") 
**.SW2.eth[1].queue.gateController.initialSchedule = xmldoc("xml/S.xml", "/schedules/switch[@name='SW2']/port[@id='1']/schedule") 
**.SW*.eth[*].queue.numberOfQueues = 8
**.SW*.eth[*].queue.tsAlgorithms[*].typename = "StrictPriority"
**.SW*.eth[*].mac.enablePreemptingFrames = false
**.ES*.trafGenSchedApp.initialSchedule = xmldoc("xml/Flows.xml")
